<?xml version="1.0" encoding="UTF-8"?>

<!-- generated on 2023-10-31 16:52:29.991894 by osmWebWizard.py v1_18_0+0000-03ecfdea036
<configuration>
    <net-file value="C:\Users\Rusty\Sumo\2023-10-31-16-52-13\osm.net.xml.gz"/>
    <output-trip-file value="C:\Users\Rusty\Sumo\2023-10-31-16-52-13\osm.passenger.trips.xml"/>
    <route-file value="C:\Users\Rusty\Sumo\2023-10-31-16-52-13\osm.passenger.rou.xml"/>
    <prefix value="veh"/>
    <trip-attributes value="departLane=&quot;best&quot;"/>
    <fringe-start-attributes value="departSpeed=&quot;max&quot;"/>
    <vehicle-class value="passenger"/>
    <lanes value="True"/>
    <fringe-factor value="5"/>
    <allow-fringe.min-length value="1000.0"/>
    <via-edge-types value="highway.motorway,highway.motorway_link,highway.trunk_link,highway.primary_link,highway.secondary_link,highway.tertiary_link"/>
    <min-distance value="300.0"/>
    <min-distance.fringe value="10.0"/>
    <remove-loops value="True"/>
    <validate value="True"/>
    <insertion-density value="12.0"/>
</configuration>
-->

<!-- generated on 2023-10-31 16:52:28 by Eclipse SUMO duarouter Version 1.18.0
<configuration xmlns:xsi="http://www.w3.org/2001/XMLSchema-instance" xsi:noNamespaceSchemaLocation="http://sumo.dlr.de/xsd/duarouterConfiguration.xsd">

    <input>
        <net-file value="C:\Users\Rusty\Sumo\2023-10-31-16-52-13\osm.net.xml.gz"/>
        <route-files value="C:\Users\Rusty\Sumo\2023-10-31-16-52-13\osm.passenger.trips.xml"/>
    </input>

    <output>
        <output-file value="C:\Users\Rusty\Sumo\2023-10-31-16-52-13\osm.passenger.trips.xml.tmp"/>
        <alternatives-output value="NUL"/>
        <write-trips value="true"/>
    </output>

    <processing>
        <remove-loops value="true"/>
    </processing>

    <time>
        <begin value="0.0"/>
        <end value="3600.0"/>
    </time>

    <report>
        <no-warnings value="true"/>
        <ignore-errors value="true"/>
        <no-step-log value="true"/>
    </report>

</configuration>
-->

<routes xmlns:xsi="http://www.w3.org/2001/XMLSchema-instance" xsi:noNamespaceSchemaLocation="http://sumo.dlr.de/xsd/routes_file.xsd">
    <vType id="veh_passenger" vClass="passenger"/>
    <trip id="veh0" type="veh_passenger" depart="0.00" departLane="best" from="30183767#0" to="150230302#0"/>
    <trip id="veh1" type="veh_passenger" depart="1.35" departLane="best" departSpeed="max" from="-32978603" to="-32396250#4"/>
    <trip id="veh2" type="veh_passenger" depart="2.70" departLane="best" from="31112747" to="31095726#8"/>
    <trip id="veh3" type="veh_passenger" depart="4.04" departLane="best" from="403362754" to="-280929621#2"/>
    <trip id="veh4" type="veh_passenger" depart="5.39" departLane="best" from="144185509#7" to="150253016#2"/>
    <trip id="veh6" type="veh_passenger" depart="8.09" departLane="best" from="-150230293#1" to="31315946#2"/>
    <trip id="veh7" type="veh_passenger" depart="9.44" departLane="best" from="-30185352#1" to="28556664#1"/>
    <trip id="veh8" type="veh_passenger" depart="10.78" departLane="best" from="-31315945" to="28851724#1"/>
    <trip id="veh9" type="veh_passenger" depart="12.13" departLane="best" from="-32604262" to="132564369#0"/>
    <trip id="veh10" type="veh_passenger" depart="13.48" departLane="best" from="32398945" to="31108337#7"/>
    <trip id="veh11" type="veh_passenger" depart="14.83" departLane="best" from="-45838502" to="30698006#4"/>
    <trip id="veh12" type="veh_passenger" depart="16.18" departLane="best" departSpeed="max" from="559479440" to="-734126539"/>
    <trip id="veh13" type="veh_passenger" depart="17.52" departLane="best" from="28078432#10" to="-28291311"/>
    <trip id="veh14" type="veh_passenger" depart="18.87" departLane="best" from="-37245665#1" to="30183472#1"/>
    <trip id="veh15" type="veh_passenger" depart="20.22" departLane="best" departSpeed="max" from="32400406#0" to="31313924#2"/>
    <trip id="veh16" type="veh_passenger" depart="21.57" departLane="best" departSpeed="max" from="28277948#0" to="686443174"/>
    <trip id="veh17" type="veh_passenger" depart="22.92" departLane="best" departSpeed="max" from="-587832029#1" to="28698506#0"/>
    <trip id="veh18" type="veh_passenger" depart="24.26" departLane="best" from="32977472#1" to="30185348#3"/>
    <trip id="veh19" type="veh_passenger" depart="25.61" departLane="best" from="38497113#1" to="28837000"/>
    <trip id="veh20" type="veh_passenger" depart="26.96" departLane="best" from="31095727#10" to="-155777825"/>
    <trip id="veh21" type="veh_passenger" depart="28.31" departLane="best" from="31858823#8" to="38527317#0"/>
    <trip id="veh22" type="veh_passenger" depart="29.66" departLane="best" from="-27941979" to="32965664#0"/>
    <trip id="veh23" type="veh_passenger" depart="31.00" departLane="best" departSpeed="max" from="-280929625#2" to="-38509321#7"/>
    <trip id="veh24" type="veh_passenger" depart="32.35" departLane="best" from="30183472#1" to="132564370"/>
    <trip id="veh25" type="veh_passenger" depart="33.70" departLane="best" from="559428655#6" to="-32073901#0"/>
    <trip id="veh26" type="veh_passenger" depart="35.05" departLane="best" from="32977075#1" to="527842976#1"/>
    <trip id="veh27" type="veh_passenger" depart="36.40" departLane="best" from="30697987#0" to="31313922#1"/>
    <trip id="veh28" type="veh_passenger" depart="37.74" departLane="best" from="-30435677#0" to="147488469#0"/>
    <trip id="veh29" type="veh_passenger" depart="39.09" departLane="best" from="861335137" to="30697984#1"/>
    <trip id="veh30" type="veh_passenger" depart="40.44" departLane="best" from="-28292333" to="31095730#0"/>
    <trip id="veh31" type="veh_passenger" depart="41.79" departLane="best" from="338156296#1" to="32398505#2"/>
    <trip id="veh32" type="veh_passenger" depart="43.14" departLane="best" from="32073677" to="-150256349#0"/>
    <trip id="veh33" type="veh_passenger" depart="44.48" departLane="best" departSpeed="max" from="-38527311#3" to="-38497111#0"/>
    <trip id="veh34" type="veh_passenger" depart="45.83" departLane="best" departSpeed="max" from="-31304178" to="549306375#0"/>
    <trip id="veh35" type="veh_passenger" depart="47.18" departLane="best" departSpeed="max" from="30436089#0" to="150230297#0"/>
    <trip id="veh36" type="veh_passenger" depart="48.53" departLane="best" from="478957501#1" to="26245234#0"/>
    <trip id="veh37" type="veh_passenger" depart="49.87" departLane="best" departSpeed="max" from="-32976157" to="-32977712#0"/>
    <trip id="veh38" type="veh_passenger" depart="51.22" departLane="best" from="28548799#3" to="-37245666#4"/>
    <trip id="veh39" type="veh_passenger" depart="52.57" departLane="best" from="28698506#0" to="-478415866#1"/>
    <trip id="veh40" type="veh_passenger" depart="53.92" departLane="best" from="-931913268#2" to="-32394899#0"/>
    <trip id="veh41" type="veh_passenger" depart="55.27" departLane="best" from="935182544" to="28288201#5"/>
    <trip id="veh42" type="veh_passenger" depart="56.61" departLane="best" from="-27994592" to="-175556654#12"/>
    <trip id="veh43" type="veh_passenger" depart="57.96" departLane="best" departSpeed="max" from="-28288202" to="30436091"/>
    <trip id="veh44" type="veh_passenger" depart="59.31" departLane="best" departSpeed="max" from="32394899#0" to="150269924#2"/>
    <trip id="veh45" type="veh_passenger" depart="60.66" departLane="best" departSpeed="max" from="-201759196#1" to="-149915018#5"/>
    <trip id="veh46" type="veh_passenger" depart="62.01" departLane="best" from="-932449643#0" to="478957479"/>
    <trip id="veh47" type="veh_passenger" depart="63.35" departLane="best" from="682761615#1" to="38527311#3"/>
    <trip id="veh48" type="veh_passenger" depart="64.70" departLane="best" from="-144443174#2" to="31304173"/>
    <trip id="veh49" type="veh_passenger" depart="66.05" departLane="best" from="30699784#1" to="28549363#1"/>
    <trip id="veh50" type="veh_passenger" depart="67.40" departLane="best" from="32977075#1" to="30697986#0"/>
    <trip id="veh51" type="veh_passenger" depart="68.75" departLane="best" departSpeed="max" from="-28288207#3" to="175556654#0"/>
    <trip id="veh52" type="veh_passenger" depart="70.09" departLane="best" from="150259964#0" to="559428659#1"/>
    <trip id="veh53" type="veh_passenger" depart="71.44" departLane="best" departSpeed="max" from="38509324#0" to="-37245666#6"/>
    <trip id="veh54" type="veh_passenger" depart="72.79" departLane="best" from="272807461#1" to="-31107806#2"/>
    <trip id="veh55" type="veh_passenger" depart="74.14" departLane="best" departSpeed="max" from="478957491" to="38527336"/>
    <trip id="veh56" type="veh_passenger" depart="75.49" departLane="best" from="-38497112#0" to="30691886"/>
    <trip id="veh57" type="veh_passenger" depart="76.83" departLane="best" from="28836996" to="30698000#4"/>
    <trip id="veh58" type="veh_passenger" depart="78.18" departLane="best" from="31314837#4" to="28549376#0"/>
    <trip id="veh59" type="veh_passenger" depart="79.53" departLane="best" from="32073900" to="-28548799#5"/>
    <trip id="veh60" type="veh_passenger" depart="80.88" departLane="best" departSpeed="max" from="-1064294956#1" to="-559428662#1"/>
    <trip id="veh61" type="veh_passenger" depart="82.23" departLane="best" from="-149915094#3" to="480305381"/>
    <trip id="veh62" type="veh_passenger" depart="83.57" departLane="best" departSpeed="max" from="38527310" to="-37245666#6"/>
    <trip id="veh63" type="veh_passenger" depart="84.92" departLane="best" from="-38509319" to="20966903#0"/>
    <trip id="veh64" type="veh_passenger" depart="86.27" departLane="best" from="38527309#3" to="549332008#1"/>
    <trip id="veh65" type="veh_passenger" depart="87.62" departLane="best" departSpeed="max" from="-27942943#4" to="27994836#0"/>
    <trip id="veh66" type="veh_passenger" depart="88.97" departLane="best" from="-216935642#0" to="-32127001#1"/>
    <trip id="veh67" type="veh_passenger" depart="90.31" departLane="best" from="31315946#3" to="-28837002#1"/>
    <trip id="veh68" type="veh_passenger" depart="91.66" departLane="best" from="-150568809#7" to="28698503"/>
    <trip id="veh69" type="veh_passenger" depart="93.01" departLane="best" departSpeed="max" from="-32976157" to="38527339"/>
    <trip id="veh70" type="veh_passenger" depart="94.36" departLane="best" from="-144443174#2" to="-32081994#2"/>
    <trip id="veh71" type="veh_passenger" depart="95.71" departLane="best" from="28277948#6" to="31313924#2"/>
    <trip id="veh72" type="veh_passenger" depart="97.05" departLane="best" from="-31110286#0" to="-479639292#9"/>
    <trip id="veh73" type="veh_passenger" depart="98.40" departLane="best" from="931913268#1" to="30698004#4"/>
    <trip id="veh74" type="veh_passenger" depart="99.75" departLane="best" from="-149915131#0" to="28291313"/>
    <trip id="veh75" type="veh_passenger" depart="101.10" departLane="best" from="28292333" to="-32398507"/>
    <trip id="veh76" type="veh_passenger" depart="102.45" departLane="best" departSpeed="max" from="-403286687" to="28851720#2"/>
    <trip id="veh77" type="veh_passenger" depart="103.79" departLane="best" from="-32073902#0" to="-32396242#0"/>
    <trip id="veh78" type="veh_passenger" depart="105.14" departLane="best" departSpeed="max" from="-247105186#1" to="30438211#2"/>
    <trip id="veh79" type="veh_passenger" depart="106.49" departLane="best" from="32073676#2" to="-478957483"/>
    <trip id="veh80" type="veh_passenger" depart="107.84" departLane="best" departSpeed="max" from="38497111#0" to="27941741#0"/>
    <trip id="veh81" type="veh_passenger" depart="109.19" departLane="best" departSpeed="max" from="-32090208#6" to="31094329#6"/>
    <trip id="veh82" type="veh_passenger" depart="110.53" departLane="best" from="-31313921#1" to="-29116589#0"/>
    <trip id="veh83" type="veh_passenger" depart="111.88" departLane="best" from="49899962" to="28828157#16"/>
    <trip id="veh84" type="veh_passenger" depart="113.23" departLane="best" departSpeed="max" from="150520500#0" to="32604337"/>
    <trip id="veh85" type="veh_passenger" depart="114.58" departLane="best" departSpeed="max" from="32400406#0" to="-31313920#0"/>
    <trip id="veh86" type="veh_passenger" depart="115.93" departLane="best" from="280929620#2" to="150568810#1"/>
    <trip id="veh87" type="veh_passenger" depart="117.27" departLane="best" from="144443174#3" to="-27941741#1"/>
    <trip id="veh88" type="veh_passenger" depart="118.62" departLane="best" from="31110280#0" to="31095720#7"/>
    <trip id="veh89" type="veh_passenger" depart="119.97" departLane="best" from="851840984" to="-28291316"/>
    <trip id="veh90" type="veh_passenger" depart="121.32" departLane="best" from="-938130570#1" to="450041408#0"/>
    <trip id="veh91" type="veh_passenger" depart="122.67" departLane="best" from="38497113#1" to="-32978504#2"/>
    <trip id="veh92" type="veh_passenger" depart="124.01" departLane="best" from="31095728#4" to="-20966902#0"/>
    <trip id="veh93" type="veh_passenger" depart="125.36" departLane="best" from="144185509#7" to="-38509322#0"/>
    <trip id="veh94" type="veh_passenger" depart="126.71" departLane="best" departSpeed="max" from="-32400406#1" to="480305338"/>
    <trip id="veh95" type="veh_passenger" depart="128.06" departLane="best" departSpeed="max" from="150236872" to="38527313#0"/>
    <trip id="veh96" type="veh_passenger" depart="129.41" departLane="best" from="28291544#1" to="175556654#9"/>
    <trip id="veh97" type="veh_passenger" depart="130.75" departLane="best" from="-938130570#0" to="38492952#1"/>
    <trip id="veh98" type="veh_passenger" depart="132.10" departLane="best" from="-657645894" to="480305369#1"/>
    <trip id="veh99" type="veh_passenger" depart="133.45" departLane="best" from="37245666#1" to="-31095728#4"/>
    <trip id="veh100" type="veh_passenger" depart="134.80" departLane="best" from="198857130#0" to="32090202"/>
    <trip id="veh101" type="veh_passenger" depart="136.15" departLane="best" from="-938001162#0" to="-20966903#1"/>
    <trip id="veh102" type="veh_passenger" depart="137.49" departLane="best" from="625272983" to="860992092#1"/>
    <trip id="veh103" type="veh_passenger" depart="138.84" departLane="best" departSpeed="max" from="-32976157" to="32604337"/>
    <trip id="veh104" type="veh_passenger" depart="140.19" departLane="best" departSpeed="max" from="559479440" to="931913268#2"/>
    <trip id="veh105" type="veh_passenger" depart="141.54" departLane="best" departSpeed="max" from="28292112" to="31304169#7"/>
    <trip id="veh106" type="veh_passenger" depart="142.89" departLane="best" departSpeed="max" from="-30183468" to="387880527#1"/>
    <trip id="veh107" type="veh_passenger" depart="144.23" departLane="best" from="657216298" to="28837002#5"/>
    <trip id="veh108" type="veh_passenger" depart="145.58" departLane="best" from="28278923#0" to="32073680#0"/>
    <trip id="veh109" type="veh_passenger" depart="146.93" departLane="best" from="-185991872#0" to="28851707#4"/>
    <trip id="veh110" type="veh_passenger" depart="148.28" departLane="best" from="275204267#2" to="38509321#0"/>
    <trip id="veh111" type="veh_passenger" depart="149.62" departLane="best" from="30183480" to="577157755"/>
    <trip id="veh112" type="veh_passenger" depart="150.97" departLane="best" from="-27942205#1" to="-31304165#4"/>
    <trip id="veh113" type="veh_passenger" depart="152.32" departLane="best" from="28706228#1" to="31095726#2"/>
    <trip id="veh114" type="veh_passenger" depart="153.67" departLane="best" from="-32090205#0" to="-28698499#1"/>
    <trip id="veh115" type="veh_passenger" depart="155.02" departLane="best" from="-387880527#0" to="-32977472#1"/>
    <trip id="veh116" type="veh_passenger" depart="156.36" departLane="best" departSpeed="max" from="28706228#0" to="30185351#0"/>
    <trip id="veh117" type="veh_passenger" depart="157.71" departLane="best" from="143683705" to="28851707#2"/>
    <trip id="veh118" type="veh_passenger" depart="159.06" departLane="best" from="28034144#2" to="498558125#0"/>
    <trip id="veh119" type="veh_passenger" depart="160.41" departLane="best" departSpeed="max" from="32090208#6" to="150230297#0"/>
    <trip id="veh120" type="veh_passenger" depart="161.76" departLane="best" from="30697992#3" to="-474711282#1"/>
    <trip id="veh121" type="veh_passenger" depart="163.10" departLane="best" departSpeed="max" from="-38527311#3" to="-32081994#0"/>
    <trip id="veh122" type="veh_passenger" depart="164.45" departLane="best" from="267341159#0" to="249401434#1"/>
    <trip id="veh123" type="veh_passenger" depart="165.80" departLane="best" from="-267341169#0" to="-32090191"/>
    <trip id="veh124" type="veh_passenger" depart="167.15" departLane="best" departSpeed="max" from="-32976157" to="498558124#0"/>
    <trip id="veh125" type="veh_passenger" depart="168.50" departLane="best" from="-38527313#1" to="38536021#1"/>
    <trip id="veh126" type="veh_passenger" depart="169.84" departLane="best" from="-559428655#1" to="30707365"/>
    <trip id="veh127" type="veh_passenger" depart="171.19" departLane="best" departSpeed="max" from="32979933#0" to="31111636"/>
    <trip id="veh128" type="veh_passenger" depart="172.54" departLane="best" from="28837002#5" to="860992110#0"/>
    <trip id="veh129" type="veh_passenger" depart="173.89" departLane="best" from="-30435677#0" to="140097647"/>
    <trip id="veh130" type="veh_passenger" depart="175.24" departLane="best" from="32965762#1" to="-474711282#1"/>
    <trip id="veh131" type="veh_passenger" depart="176.58" departLane="best" from="30438385#2" to="528088637#1"/>
    <trip id="veh132" type="veh_passenger" depart="177.93" departLane="best" departSpeed="max" from="-28554869#1" to="28549376#3"/>
    <trip id="veh133" type="veh_passenger" depart="179.28" departLane="best" from="-28288201#5" to="28698506#2"/>
    <trip id="veh134" type="veh_passenger" depart="180.63" departLane="best" departSpeed="max" from="-32977712#1" to="30183473#1"/>
    <trip id="veh135" type="veh_passenger" depart="181.98" departLane="best" from="31098052#0" to="-31857976#1"/>
    <trip id="veh136" type="veh_passenger" depart="183.32" departLane="best" from="30183470#1" to="37789047#3"/>
    <trip id="veh137" type="veh_passenger" depart="184.67" departLane="best" from="-20966902#0" to="478957483"/>
    <trip id="veh138" type="veh_passenger" depart="186.02" departLane="best" from="-365181919#0" to="-28278202#3"/>
    <trip id="veh139" type="veh_passenger" depart="187.37" departLane="best" from="-144443174#3" to="38509321#0"/>
    <trip id="veh140" type="veh_passenger" depart="188.72" departLane="best" from="1117202594" to="32396255#0"/>
    <trip id="veh141" type="veh_passenger" depart="190.06" departLane="best" from="30183480" to="-37245666#2"/>
    <trip id="veh142" type="veh_passenger" depart="191.41" departLane="best" from="31291886#1" to="28698505#2"/>
    <trip id="veh143" type="veh_passenger" depart="192.76" departLane="best" from="147488469#2" to="144443174#0"/>
    <trip id="veh144" type="veh_passenger" depart="194.11" departLane="best" from="27941460#1" to="403286687"/>
    <trip id="veh145" type="veh_passenger" depart="195.46" departLane="best" from="478415864#2" to="28556668#0"/>
    <trip id="veh146" type="veh_passenger" depart="196.80" departLane="best" departSpeed="max" from="32979933#0" to="28851705#0"/>
    <trip id="veh147" type="veh_passenger" depart="198.15" departLane="best" departSpeed="max" from="-28851728" to="-28836408"/>
    <trip id="veh148" type="veh_passenger" depart="199.50" departLane="best" from="-38509321#3" to="-478896719"/>
    <trip id="veh149" type="veh_passenger" depart="200.85" departLane="best" from="32396245" to="38527311#3"/>
    <trip id="veh150" type="veh_passenger" depart="202.20" departLane="best" from="475489216" to="-32073901#2"/>
    <trip id="veh151" type="veh_passenger" depart="203.54" departLane="best" departSpeed="max" from="-32400406#1" to="-28291756#2"/>
    <trip id="veh152" type="veh_passenger" depart="204.89" departLane="best" from="32073902#1" to="403286687"/>
    <trip id="veh153" type="veh_passenger" depart="206.24" departLane="best" from="1117202933#1" to="-577166496"/>
    <trip id="veh154" type="veh_passenger" depart="207.59" departLane="best" departSpeed="max" from="-30183468" to="480305382#0"/>
    <trip id="veh155" type="veh_passenger" depart="208.94" departLane="best" departSpeed="max" from="38497147#0" to="705954475"/>
    <trip id="veh156" type="veh_passenger" depart="210.28" departLane="best" departSpeed="max" from="32813503#0" to="38563297#0"/>
    <trip id="veh157" type="veh_passenger" depart="211.63" departLane="best" departSpeed="max" from="-149915131#8" to="31315946#2"/>
    <trip id="veh158" type="veh_passenger" depart="212.98" departLane="best" departSpeed="max" from="-38536019#1" to="480305387"/>
    <trip id="veh159" type="veh_passenger" depart="214.33" departLane="best" from="32398505#3" to="38527328#0"/>
    <trip id="veh160" type="veh_passenger" depart="215.68" departLane="best" departSpeed="max" from="32813503#0" to="38497101"/>
    <trip id="veh161" type="veh_passenger" depart="217.02" departLane="best" from="32090208#6" to="28549044#1"/>
    <trip id="veh162" type="veh_passenger" depart="218.37" departLane="best" from="38509321#8" to="38527309#2"/>
    <trip id="veh163" type="veh_passenger" depart="219.72" departLane="best" from="-31315947#2" to="-32980960#5"/>
    <trip id="veh164" type="veh_passenger" depart="221.07" departLane="best" from="-150260985#3" to="-478896752"/>
    <trip id="veh165" type="veh_passenger" depart="222.42" departLane="best" from="32396244#0" to="-32400406#0"/>
    <trip id="veh166" type="veh_passenger" depart="223.76" departLane="best" departSpeed="max" from="-149915131#8" to="-31313924#2"/>
    <trip id="veh167" type="veh_passenger" depart="225.11" departLane="best" departSpeed="max" from="-38527339" to="38527328#1"/>
    <trip id="veh168" type="veh_passenger" depart="226.46" departLane="best" from="-657112753" to="-38509322#4"/>
    <trip id="veh169" type="veh_passenger" depart="227.81" departLane="best" from="30184024#10" to="150249999#0"/>
    <trip id="veh170" type="veh_passenger" depart="229.16" departLane="best" from="-808404025#0" to="28549360"/>
    <trip id="veh171" type="veh_passenger" depart="230.50" departLane="best" from="528125806#2" to="-28549376#3"/>
    <trip id="veh172" type="veh_passenger" depart="231.85" departLane="best" from="682761614#2" to="-31107806#2"/>
    <trip id="veh173" type="veh_passenger" depart="233.20" departLane="best" from="623372708" to="-38492952#0"/>
    <trip id="veh174" type="veh_passenger" depart="234.55" departLane="best" departSpeed="max" from="-28288201#7" to="175556654#0"/>
    <trip id="veh175" type="veh_passenger" depart="235.90" departLane="best" from="31110279#3" to="-479744615"/>
    <trip id="veh176" type="veh_passenger" depart="237.24" departLane="best" from="28831542" to="28288202"/>
    <trip id="veh177" type="veh_passenger" depart="238.59" departLane="best" departSpeed="max" from="-686443174" to="28836996"/>
    <trip id="veh178" type="veh_passenger" depart="239.94" departLane="best" from="32965662" to="31112754#3"/>
    <trip id="veh179" type="veh_passenger" depart="241.29" departLane="best" departSpeed="max" from="-1064294956#1" to="480305343#0"/>
    <trip id="veh180" type="veh_passenger" depart="242.64" departLane="best" from="28277948#3" to="-280929619#0"/>
    <trip id="veh181" type="veh_passenger" depart="243.98" departLane="best" from="-31304165#2" to="31095718#1"/>
    <trip id="veh182" type="veh_passenger" depart="245.33" departLane="best" departSpeed="max" from="-498558124#1" to="-27941739"/>
    <trip id="veh183" type="veh_passenger" depart="246.68" departLane="best" from="-30438833" to="-645752001"/>
    <trip id="veh184" type="veh_passenger" depart="248.03" departLane="best" from="-38527309#2" to="38509312#2"/>
    <trip id="veh185" type="veh_passenger" depart="249.37" departLane="best" departSpeed="max" from="31098053" to="-474711282#1"/>
    <trip id="veh186" type="veh_passenger" depart="250.72" departLane="best" from="-38509321#6" to="150259962#1"/>
    <trip id="veh187" type="veh_passenger" depart="252.07" departLane="best" from="-938130570#0" to="-38542994"/>
    <trip id="veh188" type="veh_passenger" depart="253.42" departLane="best" from="28549045#2" to="150268735#1"/>
    <trip id="veh189" type="veh_passenger" depart="254.77" departLane="best" from="54685268" to="31095727#0"/>
    <trip id="veh190" type="veh_passenger" depart="256.11" departLane="best" departSpeed="max" from="478415862#0" to="30184026#7"/>
    <trip id="veh191" type="veh_passenger" depart="257.46" departLane="best" from="38497114#2" to="-28698499#5"/>
    <trip id="veh192" type="veh_passenger" depart="258.81" departLane="best" from="-1064294956#0" to="38527313#0"/>
    <trip id="veh193" type="veh_passenger" depart="260.16" departLane="best" from="149915018#6" to="28837008#0"/>
    <trip id="veh194" type="veh_passenger" depart="261.51" departLane="best" from="30435677#1" to="-27941460#1"/>
    <trip id="veh195" type="veh_passenger" depart="262.85" departLane="best" from="-150230422#0" to="-32090202"/>
    <trip id="veh196" type="veh_passenger" depart="264.20" departLane="best" departSpeed="max" from="150520500#0" to="478896748#0"/>
    <trip id="veh197" type="veh_passenger" depart="265.55" departLane="best" from="32396245" to="-31095731#4"/>
    <trip id="veh198" type="veh_passenger" depart="266.90" departLane="best" departSpeed="max" from="-27942943#4" to="28288207#3"/>
    <trip id="veh199" type="veh_passenger" depart="268.25" departLane="best" departSpeed="max" from="30182209#0" to="686443172"/>
    <trip id="veh200" type="veh_passenger" depart="269.59" departLane="best" from="329732607#1" to="32073902#1"/>
    <trip id="veh201" type="veh_passenger" depart="270.94" departLane="best" from="30697996" to="-32398504"/>
    <trip id="veh202" type="veh_passenger" depart="272.29" departLane="best" from="-31104463" to="-150230297#0"/>
    <trip id="veh203" type="veh_passenger" depart="273.64" departLane="best" from="-32396255#0" to="27942658"/>
    <trip id="veh204" type="veh_passenger" depart="274.99" departLane="best" from="37245666#3" to="27941741#5"/>
    <trip id="veh205" type="veh_passenger" depart="276.33" departLane="best" from="132564375#1" to="30437599"/>
    <trip id="veh206" type="veh_passenger" depart="277.68" departLane="best" from="31095732#1" to="31108337#3"/>
    <trip id="veh207" type="veh_passenger" depart="279.03" departLane="best" from="-216935642#1" to="-32977079#0"/>
    <trip id="veh208" type="veh_passenger" depart="280.38" departLane="best" departSpeed="max" from="30436089#0" to="125293757#1"/>
    <trip id="veh209" type="veh_passenger" depart="281.73" departLane="best" from="31304175#3" to="32396250#3"/>
    <trip id="veh210" type="veh_passenger" depart="283.07" departLane="best" from="-28288201#3" to="150519203"/>
    <trip id="veh211" type="veh_passenger" depart="284.42" departLane="best" from="-30698004#4" to="559499864#1"/>
    <trip id="veh212" type="veh_passenger" depart="285.77" departLane="best" from="-27942943#2" to="-175556654#9"/>
    <trip id="veh213" type="veh_passenger" depart="287.12" departLane="best" departSpeed="max" from="-32400406#1" to="38509312#2"/>
    <trip id="veh214" type="veh_passenger" depart="288.47" departLane="best" from="150260982#6" to="-32977075#1"/>
    <trip id="veh215" type="veh_passenger" depart="289.81" departLane="best" from="30697983#0" to="861335133"/>
    <trip id="veh216" type="veh_passenger" depart="291.16" departLane="best" from="559428642#1" to="559428651#0"/>
    <trip id="veh217" type="veh_passenger" depart="292.51" departLane="best" from="403362753#0" to="30184024#8"/>
    <trip id="veh219" type="veh_passenger" depart="295.21" departLane="best" departSpeed="max" from="32977712#0" to="28698499#5"/>
    <trip id="veh220" type="veh_passenger" depart="296.55" departLane="best" from="474667384" to="31858823#3"/>
    <trip id="veh221" type="veh_passenger" depart="297.90" departLane="best" from="-150568809#2" to="-365181919#0"/>
    <trip id="veh222" type="veh_passenger" depart="299.25" departLane="best" from="-32398507" to="30669522#3"/>
    <trip id="veh223" type="veh_passenger" depart="300.60" departLane="best" from="31315946#3" to="28291751#3"/>
    <trip id="veh224" type="veh_passenger" depart="301.95" departLane="best" from="29119542#5" to="38509314#0"/>
    <trip id="veh225" type="veh_passenger" depart="303.29" departLane="best" from="-27941741#2" to="-38527311#0"/>
    <trip id="veh226" type="veh_passenger" depart="304.64" departLane="best" departSpeed="max" from="-32977712#1" to="-559428647#1"/>
    <trip id="veh227" type="veh_passenger" depart="305.99" departLane="best" from="28278201#1" to="30183473#0"/>
    <trip id="veh228" type="veh_passenger" depart="307.34" departLane="best" from="32081994#0" to="31107804"/>
    <trip id="veh229" type="veh_passenger" depart="308.69" departLane="best" from="31095727#4" to="-267341159#2"/>
    <trip id="veh230" type="veh_passenger" depart="310.03" departLane="best" from="-1163316001" to="28554869#1"/>
    <trip id="veh231" type="veh_passenger" depart="311.38" departLane="best" from="134160322#0" to="-31858823#4"/>
    <trip id="veh232" type="veh_passenger" depart="312.73" departLane="best" from="144185509#1" to="478957480"/>
    <trip id="veh233" type="veh_passenger" depart="314.08" departLane="best" from="28698505#2" to="31108337#0"/>
    <trip id="veh234" type="veh_passenger" depart="315.43" departLane="best" from="38497097#0" to="32394901"/>
    <trip id="veh235" type="veh_passenger" depart="316.77" departLane="best" from="-657112755" to="125293757#3"/>
    <trip id="veh236" type="veh_passenger" depart="318.12" departLane="best" from="479639292#2" to="32088625"/>
    <trip id="veh237" type="veh_passenger" depart="319.47" departLane="best" from="384820201" to="559428659#0"/>